
---------- Begin Simulation Statistics ----------
sim_seconds                                  0.000245                       # Number of seconds simulated
sim_ticks                                   244534000                       # Number of ticks simulated
final_tick                                  244534000                       # Number of ticks from beginning of simulation (restored from checkpoints and never reset)
sim_freq                                 1000000000000                       # Frequency of simulated ticks
host_inst_rate                                 246501                       # Simulator instruction rate (inst/s)
host_op_rate                                   497397                       # Simulator op (including micro ops) rate (op/s)
host_tick_rate                              611210510                       # Simulator tick rate (ticks/s)
host_mem_usage                                4496116                       # Number of bytes of host memory used
host_seconds                                     0.40                       # Real time elapsed on the host
sim_insts                                       98616                       # Number of instructions simulated
sim_ops                                        198995                       # Number of ops (including micro ops) simulated
system.voltage_domain.voltage                       1                       # Voltage in Volts
system.clk_domain.clock                          1000                       # Clock period in ticks
system.mem_ctrls.clk_domain.clock                2500                       # Clock period in ticks
system.mem_ctrls.bytes_read::ruby.dir_cntrl0       121984                       # Number of bytes read from this memory
system.mem_ctrls.bytes_read::total             121984                       # Number of bytes read from this memory
system.mem_ctrls.bytes_written::ruby.dir_cntrl0          256                       # Number of bytes written to this memory
system.mem_ctrls.bytes_written::total             256                       # Number of bytes written to this memory
system.mem_ctrls.num_reads::ruby.dir_cntrl0          953                       # Number of read requests responded to by this memory
system.mem_ctrls.num_reads::total                 953                       # Number of read requests responded to by this memory
system.mem_ctrls.num_writes::ruby.dir_cntrl0            2                       # Number of write requests responded to by this memory
system.mem_ctrls.num_writes::total                  2                       # Number of write requests responded to by this memory
system.mem_ctrls.bw_read::ruby.dir_cntrl0    498842697                       # Total read bandwidth from this memory (bytes/s)
system.mem_ctrls.bw_read::total             498842697                       # Total read bandwidth from this memory (bytes/s)
system.mem_ctrls.bw_write::ruby.dir_cntrl0      1046889                       # Write bandwidth from this memory (bytes/s)
system.mem_ctrls.bw_write::total              1046889                       # Write bandwidth from this memory (bytes/s)
system.mem_ctrls.bw_total::ruby.dir_cntrl0    499889586                       # Total bandwidth to/from this memory (bytes/s)
system.mem_ctrls.bw_total::total            499889586                       # Total bandwidth to/from this memory (bytes/s)
system.mem_ctrls.memReq                           955                       # Total number of memory requests
system.mem_ctrls.memRead                          953                       # Number of memory reads
system.mem_ctrls.memWrite                           2                       # Number of memory writes
system.mem_ctrls.memRefresh                      1646                       # Number of memory refreshes
system.mem_ctrls.memWaitCycles                     56                       # Delay stalled at the head of the bank queue
system.mem_ctrls.totalStalls                       56                       # Total number of stall cycles
system.mem_ctrls.stallsPerReq                0.058639                       # Expected number of stall cycles per request
system.mem_ctrls.memBankBusy                        3                       # memory stalls due to busy bank
system.mem_ctrls.memBusBusy                        37                       # memory stalls due to busy bus
system.mem_ctrls.memArbWait                        16                       # memory stalls due to arbitration
system.mem_ctrls.memBankCount            |          38      3.98%      3.98% |          43      4.50%      8.48% |          43      4.50%     12.98% |          38      3.98%     16.96% |          35      3.66%     20.63% |          25      2.62%     23.25% |          29      3.04%     26.28% |          27      2.83%     29.11% |          30      3.14%     32.25% |          26      2.72%     34.97% |          23      2.41%     37.38% |          31      3.25%     40.63% |          33      3.46%     44.08% |          24      2.51%     46.60% |          23      2.41%     49.01% |          26      2.72%     51.73% |          24      2.51%     54.24% |          24      2.51%     56.75% |          24      2.51%     59.27% |          22      2.30%     61.57% |          29      3.04%     64.61% |          35      3.66%     68.27% |          31      3.25%     71.52% |          36      3.77%     75.29% |          28      2.93%     78.22% |          31      3.25%     81.47% |          28      2.93%     84.40% |          36      3.77%     88.17% |          33      3.46%     91.62% |          21      2.20%     93.82% |          27      2.83%     96.65% |          32      3.35%    100.00% # Number of accesses per bank
system.mem_ctrls.memBankCount::total              955                       # Number of accesses per bank
system.ruby_clk_domain.clock                      500                       # Clock period in ticks
system.ruby.phys_mem.bytes_read::writebacks          256                       # Number of bytes read from this memory
system.ruby.phys_mem.bytes_read::cpu.inst      1033264                       # Number of bytes read from this memory
system.ruby.phys_mem.bytes_read::cpu.data       168785                       # Number of bytes read from this memory
system.ruby.phys_mem.bytes_read::gpu.ce           128                       # Number of bytes read from this memory
system.ruby.phys_mem.bytes_read::gpu.shader_cores01.inst           32                       # Number of bytes read from this memory
system.ruby.phys_mem.bytes_read::total        1202465                       # Number of bytes read from this memory
system.ruby.phys_mem.bytes_inst_read::cpu.inst      1033264                       # Number of instructions bytes read from this memory
system.ruby.phys_mem.bytes_inst_read::gpu.shader_cores01.inst           32                       # Number of instructions bytes read from this memory
system.ruby.phys_mem.bytes_inst_read::total      1033296                       # Number of instructions bytes read from this memory
system.ruby.phys_mem.bytes_written::writebacks          256                       # Number of bytes written to this memory
system.ruby.phys_mem.bytes_written::cpu.data       110808                       # Number of bytes written to this memory
system.ruby.phys_mem.bytes_written::gpu.ce          128                       # Number of bytes written to this memory
system.ruby.phys_mem.bytes_written::gpu.shader_cores01.data          128                       # Number of bytes written to this memory
system.ruby.phys_mem.bytes_written::total       111320                       # Number of bytes written to this memory
system.ruby.phys_mem.num_reads::writebacks           64                       # Number of read requests responded to by this memory
system.ruby.phys_mem.num_reads::cpu.inst       129158                       # Number of read requests responded to by this memory
system.ruby.phys_mem.num_reads::cpu.data        25316                       # Number of read requests responded to by this memory
system.ruby.phys_mem.num_reads::gpu.ce              1                       # Number of read requests responded to by this memory
system.ruby.phys_mem.num_reads::gpu.shader_cores01.inst            2                       # Number of read requests responded to by this memory
system.ruby.phys_mem.num_reads::total          154541                       # Number of read requests responded to by this memory
system.ruby.phys_mem.num_writes::writebacks           64                       # Number of write requests responded to by this memory
system.ruby.phys_mem.num_writes::cpu.data        16680                       # Number of write requests responded to by this memory
system.ruby.phys_mem.num_writes::gpu.ce             1                       # Number of write requests responded to by this memory
system.ruby.phys_mem.num_writes::gpu.shader_cores01.data            1                       # Number of write requests responded to by this memory
system.ruby.phys_mem.num_writes::total          16746                       # Number of write requests responded to by this memory
system.ruby.phys_mem.bw_read::writebacks      1046889                       # Total read bandwidth from this memory (bytes/s)
system.ruby.phys_mem.bw_read::cpu.inst     4225441043                       # Total read bandwidth from this memory (bytes/s)
system.ruby.phys_mem.bw_read::cpu.data      690231215                       # Total read bandwidth from this memory (bytes/s)
system.ruby.phys_mem.bw_read::gpu.ce           523445                       # Total read bandwidth from this memory (bytes/s)
system.ruby.phys_mem.bw_read::gpu.shader_cores01.inst       130861                       # Total read bandwidth from this memory (bytes/s)
system.ruby.phys_mem.bw_read::total        4917373453                       # Total read bandwidth from this memory (bytes/s)
system.ruby.phys_mem.bw_inst_read::cpu.inst   4225441043                       # Instruction read bandwidth from this memory (bytes/s)
system.ruby.phys_mem.bw_inst_read::gpu.shader_cores01.inst       130861                       # Instruction read bandwidth from this memory (bytes/s)
system.ruby.phys_mem.bw_inst_read::total   4225571904                       # Instruction read bandwidth from this memory (bytes/s)
system.ruby.phys_mem.bw_write::writebacks      1046889                       # Write bandwidth from this memory (bytes/s)
system.ruby.phys_mem.bw_write::cpu.data     453139441                       # Write bandwidth from this memory (bytes/s)
system.ruby.phys_mem.bw_write::gpu.ce          523445                       # Write bandwidth from this memory (bytes/s)
system.ruby.phys_mem.bw_write::gpu.shader_cores01.data       523445                       # Write bandwidth from this memory (bytes/s)
system.ruby.phys_mem.bw_write::total        455233219                       # Write bandwidth from this memory (bytes/s)
system.ruby.phys_mem.bw_total::writebacks      2093778                       # Total bandwidth to/from this memory (bytes/s)
system.ruby.phys_mem.bw_total::cpu.inst    4225441043                       # Total bandwidth to/from this memory (bytes/s)
system.ruby.phys_mem.bw_total::cpu.data    1143370656                       # Total bandwidth to/from this memory (bytes/s)
system.ruby.phys_mem.bw_total::gpu.ce         1046889                       # Total bandwidth to/from this memory (bytes/s)
system.ruby.phys_mem.bw_total::gpu.shader_cores01.data       523445                       # Total bandwidth to/from this memory (bytes/s)
system.ruby.phys_mem.bw_total::gpu.shader_cores01.inst       130861                       # Total bandwidth to/from this memory (bytes/s)
system.ruby.phys_mem.bw_total::total       5372606672                       # Total bandwidth to/from this memory (bytes/s)
system.cpu_voltage_domain.voltage                   1                       # Voltage in Volts
system.cpu_clk_domain.clock                       500                       # Clock period in ticks
system.cpu.apic_clk_domain.clock                 8000                       # Clock period in ticks
system.cpu.workload.num_syscalls                   57                       # Number of system calls
system.cpu.numCycles                           489068                       # number of cpu cycles simulated
system.cpu.numWorkItemsStarted                      0                       # number of work items this cpu started
system.cpu.numWorkItemsCompleted                    0                       # number of work items this cpu completed
system.cpu.committedInsts                       98616                       # Number of instructions committed
system.cpu.committedOps                        198995                       # Number of ops (including micro ops) committed
system.cpu.num_int_alu_accesses                196662                       # Number of integer alu accesses
system.cpu.num_fp_alu_accesses                   2311                       # Number of float alu accesses
system.cpu.num_func_calls                        5206                       # number of times a function call or return occured
system.cpu.num_conditional_control_insts        16478                       # number of instructions that are conditional controls
system.cpu.num_int_insts                       196662                       # number of integer instructions
system.cpu.num_fp_insts                          2311                       # number of float instructions
system.cpu.num_int_register_reads              378229                       # number of times the integer registers were read
system.cpu.num_int_register_writes             157436                       # number of times the integer registers were written
system.cpu.num_fp_register_reads                 3833                       # number of times the floating registers were read
system.cpu.num_fp_register_writes                1796                       # number of times the floating registers were written
system.cpu.num_cc_register_reads               108376                       # number of times the CC registers were read
system.cpu.num_cc_register_writes               59706                       # number of times the CC registers were written
system.cpu.num_mem_refs                         41981                       # number of memory refs
system.cpu.num_load_insts                       25303                       # Number of load instructions
system.cpu.num_store_insts                      16678                       # Number of store instructions
system.cpu.num_idle_cycles                7559.195969                       # Number of idle cycles
system.cpu.num_busy_cycles               481508.804031                       # Number of busy cycles
system.cpu.not_idle_fraction                 0.984544                       # Percentage of non-idle cycles
system.cpu.idle_fraction                     0.015456                       # Percentage of idle cycles
system.cpu.Branches                             23046                       # Number of branches fetched
system.cpu.op_class::No_OpClass                   803      0.40%      0.40% # Class of executed instruction
system.cpu.op_class::IntAlu                    154248     77.51%     77.92% # Class of executed instruction
system.cpu.op_class::IntMult                      130      0.07%     77.98% # Class of executed instruction
system.cpu.op_class::IntDiv                       151      0.08%     78.06% # Class of executed instruction
system.cpu.op_class::FloatAdd                    1682      0.85%     78.90% # Class of executed instruction
system.cpu.op_class::FloatCmp                       0      0.00%     78.90% # Class of executed instruction
system.cpu.op_class::FloatCvt                       0      0.00%     78.90% # Class of executed instruction
system.cpu.op_class::FloatMult                      0      0.00%     78.90% # Class of executed instruction
system.cpu.op_class::FloatDiv                       0      0.00%     78.90% # Class of executed instruction
system.cpu.op_class::FloatSqrt                      0      0.00%     78.90% # Class of executed instruction
system.cpu.op_class::SimdAdd                        0      0.00%     78.90% # Class of executed instruction
system.cpu.op_class::SimdAddAcc                     0      0.00%     78.90% # Class of executed instruction
system.cpu.op_class::SimdAlu                        0      0.00%     78.90% # Class of executed instruction
system.cpu.op_class::SimdCmp                        0      0.00%     78.90% # Class of executed instruction
system.cpu.op_class::SimdCvt                        0      0.00%     78.90% # Class of executed instruction
system.cpu.op_class::SimdMisc                       0      0.00%     78.90% # Class of executed instruction
system.cpu.op_class::SimdMult                       0      0.00%     78.90% # Class of executed instruction
system.cpu.op_class::SimdMultAcc                    0      0.00%     78.90% # Class of executed instruction
system.cpu.op_class::SimdShift                      0      0.00%     78.90% # Class of executed instruction
system.cpu.op_class::SimdShiftAcc                   0      0.00%     78.90% # Class of executed instruction
system.cpu.op_class::SimdSqrt                       0      0.00%     78.90% # Class of executed instruction
system.cpu.op_class::SimdFloatAdd                   0      0.00%     78.90% # Class of executed instruction
system.cpu.op_class::SimdFloatAlu                   0      0.00%     78.90% # Class of executed instruction
system.cpu.op_class::SimdFloatCmp                   0      0.00%     78.90% # Class of executed instruction
system.cpu.op_class::SimdFloatCvt                   0      0.00%     78.90% # Class of executed instruction
system.cpu.op_class::SimdFloatDiv                   0      0.00%     78.90% # Class of executed instruction
system.cpu.op_class::SimdFloatMisc                  0      0.00%     78.90% # Class of executed instruction
system.cpu.op_class::SimdFloatMult                  0      0.00%     78.90% # Class of executed instruction
system.cpu.op_class::SimdFloatMultAcc               0      0.00%     78.90% # Class of executed instruction
system.cpu.op_class::SimdFloatSqrt                  0      0.00%     78.90% # Class of executed instruction
system.cpu.op_class::MemRead                    25303     12.72%     91.62% # Class of executed instruction
system.cpu.op_class::MemWrite                   16678      8.38%    100.00% # Class of executed instruction
system.cpu.op_class::IprAccess                      0      0.00%    100.00% # Class of executed instruction
system.cpu.op_class::InstPrefetch                   0      0.00%    100.00% # Class of executed instruction
system.cpu.op_class::total                     198995                       # Class of executed instruction
system.gpu.clk_domain.voltage_domain.voltage            1                       # Voltage in Volts
system.gpu.clk_domain.clock                      1429                       # Clock period in ticks
system.gpu.dram_wrapper.clk_domain.clock          541                       # Clock period in ticks
system.gpu.icnt_wrapper.clk_domain.clock         2858                       # Clock period in ticks
system.ruby.delayHist::bucket_size                  1                       # delay histogram for all message
system.ruby.delayHist::max_bucket                   9                       # delay histogram for all message
system.ruby.delayHist::samples                      9                       # delay histogram for all message
system.ruby.delayHist                    |           9    100.00%    100.00% |           0      0.00%    100.00% |           0      0.00%    100.00% |           0      0.00%    100.00% |           0      0.00%    100.00% |           0      0.00%    100.00% |           0      0.00%    100.00% |           0      0.00%    100.00% |           0      0.00%    100.00% |           0      0.00%    100.00% # delay histogram for all message
system.ruby.delayHist::total                        9                       # delay histogram for all message
system.ruby.outstanding_req_hist::bucket_size            1                      
system.ruby.outstanding_req_hist::max_bucket            9                      
system.ruby.outstanding_req_hist::samples       171165                      
system.ruby.outstanding_req_hist::mean       1.000088                      
system.ruby.outstanding_req_hist::gmean      1.000061                      
system.ruby.outstanding_req_hist::stdev      0.009361                      
system.ruby.outstanding_req_hist         |           0      0.00%      0.00% |      171150     99.99%     99.99% |          15      0.01%    100.00% |           0      0.00%    100.00% |           0      0.00%    100.00% |           0      0.00%    100.00% |           0      0.00%    100.00% |           0      0.00%    100.00% |           0      0.00%    100.00% |           0      0.00%    100.00%
system.ruby.outstanding_req_hist::total        171165                      
system.ruby.latency_hist::bucket_size             128                      
system.ruby.latency_hist::max_bucket             1279                      
system.ruby.latency_hist::samples              171165                      
system.ruby.latency_hist::mean               1.839044                      
system.ruby.latency_hist::gmean              1.030580                      
system.ruby.latency_hist::stdev             11.272977                      
system.ruby.latency_hist                 |      170203     99.44%     99.44% |         953      0.56%     99.99% |           0      0.00%     99.99% |           6      0.00%    100.00% |           2      0.00%    100.00% |           1      0.00%    100.00% |           0      0.00%    100.00% |           0      0.00%    100.00% |           0      0.00%    100.00% |           0      0.00%    100.00%
system.ruby.latency_hist::total                171165                      
system.ruby.hit_latency_hist::bucket_size           64                      
system.ruby.hit_latency_hist::max_bucket          639                      
system.ruby.hit_latency_hist::samples          170205                      
system.ruby.hit_latency_hist::mean           1.014988                      
system.ruby.hit_latency_hist::gmean          1.002161                      
system.ruby.hit_latency_hist::stdev          1.154706                      
system.ruby.hit_latency_hist             |      170203    100.00%    100.00% |           0      0.00%    100.00% |           0      0.00%    100.00% |           1      0.00%    100.00% |           0      0.00%    100.00% |           0      0.00%    100.00% |           1      0.00%    100.00% |           0      0.00%    100.00% |           0      0.00%    100.00% |           0      0.00%    100.00%
system.ruby.hit_latency_hist::total            170205                      
system.ruby.miss_latency_hist::bucket_size          128                      
system.ruby.miss_latency_hist::max_bucket         1279                      
system.ruby.miss_latency_hist::samples            960                      
system.ruby.miss_latency_hist::mean        147.941667                      
system.ruby.miss_latency_hist::gmean       146.625043                      
system.ruby.miss_latency_hist::stdev        30.920274                      
system.ruby.miss_latency_hist            |           0      0.00%      0.00% |         952     99.17%     99.17% |           0      0.00%     99.17% |           5      0.52%     99.69% |           2      0.21%     99.90% |           1      0.10%    100.00% |           0      0.00%    100.00% |           0      0.00%    100.00% |           0      0.00%    100.00% |           0      0.00%    100.00%
system.ruby.miss_latency_hist::total              960                      
system.ruby.L1Cache.incomplete_times                1                      
system.ruby.GPUL2Cache.incomplete_times             6                      
system.ruby.Directory.incomplete_times              1                      
system.gpu.shader_mmu.numPagefaults                 0                       # Number of Pagefaults
system.gpu.shader_mmu.numPagewalks                  1                       # Number of Pagewalks
system.gpu.shader_mmu.totalRequests                 1                       # Total number of requests
system.gpu.shader_mmu.l2hits                        0                       # Hits in the shared L2
system.gpu.shader_mmu.prefetchHits                  0                       # Number of prefetch hits
system.gpu.shader_mmu.numPrefetches                 0                       # Number of prefetchs
system.gpu.shader_mmu.prefetchFaults                0                       # Number of faults caused by prefetches
system.gpu.shader_mmu.pagefaultLatency::samples            0                       # Latency to complete the pagefault
system.gpu.shader_mmu.pagefaultLatency::mean          nan                       # Latency to complete the pagefault
system.gpu.shader_mmu.pagefaultLatency::gmean          nan                       # Latency to complete the pagefault
system.gpu.shader_mmu.pagefaultLatency::stdev          nan                       # Latency to complete the pagefault
system.gpu.shader_mmu.pagefaultLatency::0            0                       # Latency to complete the pagefault
system.gpu.shader_mmu.pagefaultLatency::1            0                       # Latency to complete the pagefault
system.gpu.shader_mmu.pagefaultLatency::2            0                       # Latency to complete the pagefault
system.gpu.shader_mmu.pagefaultLatency::3            0                       # Latency to complete the pagefault
system.gpu.shader_mmu.pagefaultLatency::4            0                       # Latency to complete the pagefault
system.gpu.shader_mmu.pagefaultLatency::5            0                       # Latency to complete the pagefault
system.gpu.shader_mmu.pagefaultLatency::6            0                       # Latency to complete the pagefault
system.gpu.shader_mmu.pagefaultLatency::7            0                       # Latency to complete the pagefault
system.gpu.shader_mmu.pagefaultLatency::8            0                       # Latency to complete the pagefault
system.gpu.shader_mmu.pagefaultLatency::9            0                       # Latency to complete the pagefault
system.gpu.shader_mmu.pagefaultLatency::10            0                       # Latency to complete the pagefault
system.gpu.shader_mmu.pagefaultLatency::11            0                       # Latency to complete the pagefault
system.gpu.shader_mmu.pagefaultLatency::12            0                       # Latency to complete the pagefault
system.gpu.shader_mmu.pagefaultLatency::13            0                       # Latency to complete the pagefault
system.gpu.shader_mmu.pagefaultLatency::14            0                       # Latency to complete the pagefault
system.gpu.shader_mmu.pagefaultLatency::15            0                       # Latency to complete the pagefault
system.gpu.shader_mmu.pagefaultLatency::16            0                       # Latency to complete the pagefault
system.gpu.shader_mmu.pagefaultLatency::17            0                       # Latency to complete the pagefault
system.gpu.shader_mmu.pagefaultLatency::18            0                       # Latency to complete the pagefault
system.gpu.shader_mmu.pagefaultLatency::19            0                       # Latency to complete the pagefault
system.gpu.shader_mmu.pagefaultLatency::20            0                       # Latency to complete the pagefault
system.gpu.shader_mmu.pagefaultLatency::21            0                       # Latency to complete the pagefault
system.gpu.shader_mmu.pagefaultLatency::22            0                       # Latency to complete the pagefault
system.gpu.shader_mmu.pagefaultLatency::23            0                       # Latency to complete the pagefault
system.gpu.shader_mmu.pagefaultLatency::24            0                       # Latency to complete the pagefault
system.gpu.shader_mmu.pagefaultLatency::25            0                       # Latency to complete the pagefault
system.gpu.shader_mmu.pagefaultLatency::26            0                       # Latency to complete the pagefault
system.gpu.shader_mmu.pagefaultLatency::27            0                       # Latency to complete the pagefault
system.gpu.shader_mmu.pagefaultLatency::28            0                       # Latency to complete the pagefault
system.gpu.shader_mmu.pagefaultLatency::29            0                       # Latency to complete the pagefault
system.gpu.shader_mmu.pagefaultLatency::30            0                       # Latency to complete the pagefault
system.gpu.shader_mmu.pagefaultLatency::31            0                       # Latency to complete the pagefault
system.gpu.shader_mmu.pagefaultLatency::total            0                       # Latency to complete the pagefault
system.gpu.shader_mmu.concurrentWalks::samples            1                       # Number of outstanding walks
system.gpu.shader_mmu.concurrentWalks::mean            0                       # Number of outstanding walks
system.gpu.shader_mmu.concurrentWalks::gmean            0                       # Number of outstanding walks
system.gpu.shader_mmu.concurrentWalks::stdev          nan                       # Number of outstanding walks
system.gpu.shader_mmu.concurrentWalks::0            1    100.00%    100.00% # Number of outstanding walks
system.gpu.shader_mmu.concurrentWalks::1            0      0.00%    100.00% # Number of outstanding walks
system.gpu.shader_mmu.concurrentWalks::2            0      0.00%    100.00% # Number of outstanding walks
system.gpu.shader_mmu.concurrentWalks::3            0      0.00%    100.00% # Number of outstanding walks
system.gpu.shader_mmu.concurrentWalks::4            0      0.00%    100.00% # Number of outstanding walks
system.gpu.shader_mmu.concurrentWalks::5            0      0.00%    100.00% # Number of outstanding walks
system.gpu.shader_mmu.concurrentWalks::6            0      0.00%    100.00% # Number of outstanding walks
system.gpu.shader_mmu.concurrentWalks::7            0      0.00%    100.00% # Number of outstanding walks
system.gpu.shader_mmu.concurrentWalks::8            0      0.00%    100.00% # Number of outstanding walks
system.gpu.shader_mmu.concurrentWalks::9            0      0.00%    100.00% # Number of outstanding walks
system.gpu.shader_mmu.concurrentWalks::10            0      0.00%    100.00% # Number of outstanding walks
system.gpu.shader_mmu.concurrentWalks::11            0      0.00%    100.00% # Number of outstanding walks
system.gpu.shader_mmu.concurrentWalks::12            0      0.00%    100.00% # Number of outstanding walks
system.gpu.shader_mmu.concurrentWalks::13            0      0.00%    100.00% # Number of outstanding walks
system.gpu.shader_mmu.concurrentWalks::14            0      0.00%    100.00% # Number of outstanding walks
system.gpu.shader_mmu.concurrentWalks::15            0      0.00%    100.00% # Number of outstanding walks
system.gpu.shader_mmu.concurrentWalks::total            1                       # Number of outstanding walks
system.gpu.shader_mmu.pagewalkLatency::samples            1                       # Latency to complete the pagewalk
system.gpu.shader_mmu.pagewalkLatency::mean            0                       # Latency to complete the pagewalk
system.gpu.shader_mmu.pagewalkLatency::gmean            0                       # Latency to complete the pagewalk
system.gpu.shader_mmu.pagewalkLatency::stdev          nan                       # Latency to complete the pagewalk
system.gpu.shader_mmu.pagewalkLatency::0            1    100.00%    100.00% # Latency to complete the pagewalk
system.gpu.shader_mmu.pagewalkLatency::1            0      0.00%    100.00% # Latency to complete the pagewalk
system.gpu.shader_mmu.pagewalkLatency::2            0      0.00%    100.00% # Latency to complete the pagewalk
system.gpu.shader_mmu.pagewalkLatency::3            0      0.00%    100.00% # Latency to complete the pagewalk
system.gpu.shader_mmu.pagewalkLatency::4            0      0.00%    100.00% # Latency to complete the pagewalk
system.gpu.shader_mmu.pagewalkLatency::5            0      0.00%    100.00% # Latency to complete the pagewalk
system.gpu.shader_mmu.pagewalkLatency::6            0      0.00%    100.00% # Latency to complete the pagewalk
system.gpu.shader_mmu.pagewalkLatency::7            0      0.00%    100.00% # Latency to complete the pagewalk
system.gpu.shader_mmu.pagewalkLatency::8            0      0.00%    100.00% # Latency to complete the pagewalk
system.gpu.shader_mmu.pagewalkLatency::9            0      0.00%    100.00% # Latency to complete the pagewalk
system.gpu.shader_mmu.pagewalkLatency::10            0      0.00%    100.00% # Latency to complete the pagewalk
system.gpu.shader_mmu.pagewalkLatency::11            0      0.00%    100.00% # Latency to complete the pagewalk
system.gpu.shader_mmu.pagewalkLatency::12            0      0.00%    100.00% # Latency to complete the pagewalk
system.gpu.shader_mmu.pagewalkLatency::13            0      0.00%    100.00% # Latency to complete the pagewalk
system.gpu.shader_mmu.pagewalkLatency::14            0      0.00%    100.00% # Latency to complete the pagewalk
system.gpu.shader_mmu.pagewalkLatency::15            0      0.00%    100.00% # Latency to complete the pagewalk
system.gpu.shader_mmu.pagewalkLatency::16            0      0.00%    100.00% # Latency to complete the pagewalk
system.gpu.shader_mmu.pagewalkLatency::17            0      0.00%    100.00% # Latency to complete the pagewalk
system.gpu.shader_mmu.pagewalkLatency::18            0      0.00%    100.00% # Latency to complete the pagewalk
system.gpu.shader_mmu.pagewalkLatency::19            0      0.00%    100.00% # Latency to complete the pagewalk
system.gpu.shader_mmu.pagewalkLatency::20            0      0.00%    100.00% # Latency to complete the pagewalk
system.gpu.shader_mmu.pagewalkLatency::21            0      0.00%    100.00% # Latency to complete the pagewalk
system.gpu.shader_mmu.pagewalkLatency::22            0      0.00%    100.00% # Latency to complete the pagewalk
system.gpu.shader_mmu.pagewalkLatency::23            0      0.00%    100.00% # Latency to complete the pagewalk
system.gpu.shader_mmu.pagewalkLatency::24            0      0.00%    100.00% # Latency to complete the pagewalk
system.gpu.shader_mmu.pagewalkLatency::25            0      0.00%    100.00% # Latency to complete the pagewalk
system.gpu.shader_mmu.pagewalkLatency::26            0      0.00%    100.00% # Latency to complete the pagewalk
system.gpu.shader_mmu.pagewalkLatency::27            0      0.00%    100.00% # Latency to complete the pagewalk
system.gpu.shader_mmu.pagewalkLatency::28            0      0.00%    100.00% # Latency to complete the pagewalk
system.gpu.shader_mmu.pagewalkLatency::29            0      0.00%    100.00% # Latency to complete the pagewalk
system.gpu.shader_mmu.pagewalkLatency::30            0      0.00%    100.00% # Latency to complete the pagewalk
system.gpu.shader_mmu.pagewalkLatency::31            0      0.00%    100.00% # Latency to complete the pagewalk
system.gpu.shader_mmu.pagewalkLatency::total            1                       # Latency to complete the pagewalk
system.gpu.kernels_started                          1                       # Number of kernels started
system.gpu.kernels_completed                        1                       # Number of kernels completed
system.gpu.ce.device_dtb.hits                       0                       # Number of hits in this TLB
system.gpu.ce.device_dtb.misses                     0                       # Number of misses in this TLB
system.gpu.ce.device_dtb.hitRate                  nan                       # Hit rate for this TLB
system.gpu.ce.host_dtb.hits                         0                       # Number of hits in this TLB
system.gpu.ce.host_dtb.misses                       1                       # Number of misses in this TLB
system.gpu.ce.host_dtb.hitRate                      0                       # Hit rate for this TLB
system.gpu.ce.numOperations                         1                       # Number of copy/memset operations
system.gpu.ce.opBytesRead                         128                       # Number of copy bytes read
system.gpu.ce.opBytesWritten                      128                       # Number of copy/memset bytes written
system.gpu.ce.opTimeTicks                     5159809                       # Total time spent in copy/memset operations
system.gpu.shader_cores00.itb.hits                  0                       # Number of hits in this TLB
system.gpu.shader_cores00.itb.misses                0                       # Number of misses in this TLB
system.gpu.shader_cores00.itb.hitRate             nan                       # Hit rate for this TLB
system.gpu.shader_cores00.local_loads               0                       # Number of loads from local space
system.gpu.shader_cores00.local_stores              0                       # Number of stores to local space
system.gpu.shader_cores00.shared_loads              0                       # Number of loads from shared space
system.gpu.shader_cores00.shared_stores             0                       # Number of stores to shared space
system.gpu.shader_cores00.param_kernel_loads            0                       # Number of loads from kernel parameter space
system.gpu.shader_cores00.param_local_loads            0                       # Number of loads from local parameter space
system.gpu.shader_cores00.param_local_stores            0                       # Number of stores to local parameter space
system.gpu.shader_cores00.const_loads               0                       # Number of loads from constant space
system.gpu.shader_cores00.tex_loads                 0                       # Number of loads from texture space
system.gpu.shader_cores00.global_loads              0                       # Number of loads from global space
system.gpu.shader_cores00.global_stores             0                       # Number of stores to global space
system.gpu.shader_cores00.surf_loads                0                       # Number of loads from surface space
system.gpu.shader_cores00.generic_loads             0                       # Number of loads from generic spaces (global, shared, local)
system.gpu.shader_cores00.generic_stores            0                       # Number of stores to generic spaces (global, shared, local)
system.gpu.shader_cores00.inst_cache_requests            0                       # Number of instruction cache requests sent
system.gpu.shader_cores00.inst_cache_retries            0                       # Number of instruction cache retries
system.gpu.shader_cores00.inst_counts::0            0                       # Inst counts: 1: ALU, 2: MAD, 3: CTRL, 4: SFU, 5: MEM, 6: TEX, 7: NOP
system.gpu.shader_cores00.inst_counts::1            0                       # Inst counts: 1: ALU, 2: MAD, 3: CTRL, 4: SFU, 5: MEM, 6: TEX, 7: NOP
system.gpu.shader_cores00.inst_counts::2            0                       # Inst counts: 1: ALU, 2: MAD, 3: CTRL, 4: SFU, 5: MEM, 6: TEX, 7: NOP
system.gpu.shader_cores00.inst_counts::3            0                       # Inst counts: 1: ALU, 2: MAD, 3: CTRL, 4: SFU, 5: MEM, 6: TEX, 7: NOP
system.gpu.shader_cores00.inst_counts::4            0                       # Inst counts: 1: ALU, 2: MAD, 3: CTRL, 4: SFU, 5: MEM, 6: TEX, 7: NOP
system.gpu.shader_cores00.inst_counts::5            0                       # Inst counts: 1: ALU, 2: MAD, 3: CTRL, 4: SFU, 5: MEM, 6: TEX, 7: NOP
system.gpu.shader_cores00.inst_counts::6            0                       # Inst counts: 1: ALU, 2: MAD, 3: CTRL, 4: SFU, 5: MEM, 6: TEX, 7: NOP
system.gpu.shader_cores00.inst_counts::7            0                       # Inst counts: 1: ALU, 2: MAD, 3: CTRL, 4: SFU, 5: MEM, 6: TEX, 7: NOP
system.gpu.shader_cores00.activeCycles              0                       # Number of cycles this shader was executing a CTA
system.gpu.shader_cores00.notStalledCycles            0                       # Number of cycles this shader was actually executing at least one instance
system.gpu.shader_cores00.instInstances             0                       # Total instructions executed by all PEs in the core
system.gpu.shader_cores00.instPerCycle            nan                       # Instruction instances per cycle
system.gpu.shader_cores00.kernels_completed            0                       # Number of kernels completed
system.gpu.shader_cores00.lsq.data_tlb.hits            0                       # Number of hits in this TLB
system.gpu.shader_cores00.lsq.data_tlb.misses            0                       # Number of misses in this TLB
system.gpu.shader_cores00.lsq.data_tlb.hitRate          nan                       # Hit rate for this TLB
system.gpu.shader_cores00.lsq.warpInstBufActive::samples            0                       # Histogram of number of active warp inst buffers at a given time
system.gpu.shader_cores00.lsq.warpInstBufActive::mean          nan                       # Histogram of number of active warp inst buffers at a given time
system.gpu.shader_cores00.lsq.warpInstBufActive::gmean          nan                       # Histogram of number of active warp inst buffers at a given time
system.gpu.shader_cores00.lsq.warpInstBufActive::stdev          nan                       # Histogram of number of active warp inst buffers at a given time
system.gpu.shader_cores00.lsq.warpInstBufActive::0            0                       # Histogram of number of active warp inst buffers at a given time
system.gpu.shader_cores00.lsq.warpInstBufActive::1            0                       # Histogram of number of active warp inst buffers at a given time
system.gpu.shader_cores00.lsq.warpInstBufActive::2            0                       # Histogram of number of active warp inst buffers at a given time
system.gpu.shader_cores00.lsq.warpInstBufActive::3            0                       # Histogram of number of active warp inst buffers at a given time
system.gpu.shader_cores00.lsq.warpInstBufActive::4            0                       # Histogram of number of active warp inst buffers at a given time
system.gpu.shader_cores00.lsq.warpInstBufActive::5            0                       # Histogram of number of active warp inst buffers at a given time
system.gpu.shader_cores00.lsq.warpInstBufActive::6            0                       # Histogram of number of active warp inst buffers at a given time
system.gpu.shader_cores00.lsq.warpInstBufActive::7            0                       # Histogram of number of active warp inst buffers at a given time
system.gpu.shader_cores00.lsq.warpInstBufActive::8            0                       # Histogram of number of active warp inst buffers at a given time
system.gpu.shader_cores00.lsq.warpInstBufActive::9            0                       # Histogram of number of active warp inst buffers at a given time
system.gpu.shader_cores00.lsq.warpInstBufActive::10            0                       # Histogram of number of active warp inst buffers at a given time
system.gpu.shader_cores00.lsq.warpInstBufActive::11            0                       # Histogram of number of active warp inst buffers at a given time
system.gpu.shader_cores00.lsq.warpInstBufActive::12            0                       # Histogram of number of active warp inst buffers at a given time
system.gpu.shader_cores00.lsq.warpInstBufActive::13            0                       # Histogram of number of active warp inst buffers at a given time
system.gpu.shader_cores00.lsq.warpInstBufActive::14            0                       # Histogram of number of active warp inst buffers at a given time
system.gpu.shader_cores00.lsq.warpInstBufActive::15            0                       # Histogram of number of active warp inst buffers at a given time
system.gpu.shader_cores00.lsq.warpInstBufActive::16            0                       # Histogram of number of active warp inst buffers at a given time
system.gpu.shader_cores00.lsq.warpInstBufActive::17            0                       # Histogram of number of active warp inst buffers at a given time
system.gpu.shader_cores00.lsq.warpInstBufActive::18            0                       # Histogram of number of active warp inst buffers at a given time
system.gpu.shader_cores00.lsq.warpInstBufActive::19            0                       # Histogram of number of active warp inst buffers at a given time
system.gpu.shader_cores00.lsq.warpInstBufActive::20            0                       # Histogram of number of active warp inst buffers at a given time
system.gpu.shader_cores00.lsq.warpInstBufActive::21            0                       # Histogram of number of active warp inst buffers at a given time
system.gpu.shader_cores00.lsq.warpInstBufActive::22            0                       # Histogram of number of active warp inst buffers at a given time
system.gpu.shader_cores00.lsq.warpInstBufActive::23            0                       # Histogram of number of active warp inst buffers at a given time
system.gpu.shader_cores00.lsq.warpInstBufActive::24            0                       # Histogram of number of active warp inst buffers at a given time
system.gpu.shader_cores00.lsq.warpInstBufActive::25            0                       # Histogram of number of active warp inst buffers at a given time
system.gpu.shader_cores00.lsq.warpInstBufActive::26            0                       # Histogram of number of active warp inst buffers at a given time
system.gpu.shader_cores00.lsq.warpInstBufActive::27            0                       # Histogram of number of active warp inst buffers at a given time
system.gpu.shader_cores00.lsq.warpInstBufActive::28            0                       # Histogram of number of active warp inst buffers at a given time
system.gpu.shader_cores00.lsq.warpInstBufActive::29            0                       # Histogram of number of active warp inst buffers at a given time
system.gpu.shader_cores00.lsq.warpInstBufActive::30            0                       # Histogram of number of active warp inst buffers at a given time
system.gpu.shader_cores00.lsq.warpInstBufActive::31            0                       # Histogram of number of active warp inst buffers at a given time
system.gpu.shader_cores00.lsq.warpInstBufActive::32            0                       # Histogram of number of active warp inst buffers at a given time
system.gpu.shader_cores00.lsq.warpInstBufActive::33            0                       # Histogram of number of active warp inst buffers at a given time
system.gpu.shader_cores00.lsq.warpInstBufActive::34            0                       # Histogram of number of active warp inst buffers at a given time
system.gpu.shader_cores00.lsq.warpInstBufActive::35            0                       # Histogram of number of active warp inst buffers at a given time
system.gpu.shader_cores00.lsq.warpInstBufActive::36            0                       # Histogram of number of active warp inst buffers at a given time
system.gpu.shader_cores00.lsq.warpInstBufActive::37            0                       # Histogram of number of active warp inst buffers at a given time
system.gpu.shader_cores00.lsq.warpInstBufActive::38            0                       # Histogram of number of active warp inst buffers at a given time
system.gpu.shader_cores00.lsq.warpInstBufActive::39            0                       # Histogram of number of active warp inst buffers at a given time
system.gpu.shader_cores00.lsq.warpInstBufActive::40            0                       # Histogram of number of active warp inst buffers at a given time
system.gpu.shader_cores00.lsq.warpInstBufActive::41            0                       # Histogram of number of active warp inst buffers at a given time
system.gpu.shader_cores00.lsq.warpInstBufActive::42            0                       # Histogram of number of active warp inst buffers at a given time
system.gpu.shader_cores00.lsq.warpInstBufActive::43            0                       # Histogram of number of active warp inst buffers at a given time
system.gpu.shader_cores00.lsq.warpInstBufActive::44            0                       # Histogram of number of active warp inst buffers at a given time
system.gpu.shader_cores00.lsq.warpInstBufActive::45            0                       # Histogram of number of active warp inst buffers at a given time
system.gpu.shader_cores00.lsq.warpInstBufActive::46            0                       # Histogram of number of active warp inst buffers at a given time
system.gpu.shader_cores00.lsq.warpInstBufActive::47            0                       # Histogram of number of active warp inst buffers at a given time
system.gpu.shader_cores00.lsq.warpInstBufActive::48            0                       # Histogram of number of active warp inst buffers at a given time
system.gpu.shader_cores00.lsq.warpInstBufActive::49            0                       # Histogram of number of active warp inst buffers at a given time
system.gpu.shader_cores00.lsq.warpInstBufActive::50            0                       # Histogram of number of active warp inst buffers at a given time
system.gpu.shader_cores00.lsq.warpInstBufActive::51            0                       # Histogram of number of active warp inst buffers at a given time
system.gpu.shader_cores00.lsq.warpInstBufActive::52            0                       # Histogram of number of active warp inst buffers at a given time
system.gpu.shader_cores00.lsq.warpInstBufActive::53            0                       # Histogram of number of active warp inst buffers at a given time
system.gpu.shader_cores00.lsq.warpInstBufActive::54            0                       # Histogram of number of active warp inst buffers at a given time
system.gpu.shader_cores00.lsq.warpInstBufActive::55            0                       # Histogram of number of active warp inst buffers at a given time
system.gpu.shader_cores00.lsq.warpInstBufActive::56            0                       # Histogram of number of active warp inst buffers at a given time
system.gpu.shader_cores00.lsq.warpInstBufActive::57            0                       # Histogram of number of active warp inst buffers at a given time
system.gpu.shader_cores00.lsq.warpInstBufActive::58            0                       # Histogram of number of active warp inst buffers at a given time
system.gpu.shader_cores00.lsq.warpInstBufActive::59            0                       # Histogram of number of active warp inst buffers at a given time
system.gpu.shader_cores00.lsq.warpInstBufActive::60            0                       # Histogram of number of active warp inst buffers at a given time
system.gpu.shader_cores00.lsq.warpInstBufActive::61            0                       # Histogram of number of active warp inst buffers at a given time
system.gpu.shader_cores00.lsq.warpInstBufActive::62            0                       # Histogram of number of active warp inst buffers at a given time
system.gpu.shader_cores00.lsq.warpInstBufActive::63            0                       # Histogram of number of active warp inst buffers at a given time
system.gpu.shader_cores00.lsq.warpInstBufActive::64            0                       # Histogram of number of active warp inst buffers at a given time
system.gpu.shader_cores00.lsq.warpInstBufActive::total            0                       # Histogram of number of active warp inst buffers at a given time
system.gpu.shader_cores00.lsq.cacheAccesses            0                       # Average number of concurrent outstanding cache accesses
system.gpu.shader_cores00.lsq.writebackBlockedCycles            0                       # Number of cycles blocked for core writeback stage
system.gpu.shader_cores00.lsq.mshrHitQueued            0                       # Number of hits on blocked lines in MSHRs
system.gpu.shader_cores00.lsq.mshrsFullCycles            0                       # Number of cycles stalled waiting for an MSHR
system.gpu.shader_cores00.lsq.mshrsFullCount            0                       # Number of times MSHRs filled
system.gpu.shader_cores00.lsq.warpCoalescedAccesses::samples            0                       # Number of coalesced accesses per warp instruction
system.gpu.shader_cores00.lsq.warpCoalescedAccesses::mean          nan                       # Number of coalesced accesses per warp instruction
system.gpu.shader_cores00.lsq.warpCoalescedAccesses::gmean          nan                       # Number of coalesced accesses per warp instruction
system.gpu.shader_cores00.lsq.warpCoalescedAccesses::stdev          nan                       # Number of coalesced accesses per warp instruction
system.gpu.shader_cores00.lsq.warpCoalescedAccesses::0            0                       # Number of coalesced accesses per warp instruction
system.gpu.shader_cores00.lsq.warpCoalescedAccesses::1            0                       # Number of coalesced accesses per warp instruction
system.gpu.shader_cores00.lsq.warpCoalescedAccesses::2            0                       # Number of coalesced accesses per warp instruction
system.gpu.shader_cores00.lsq.warpCoalescedAccesses::3            0                       # Number of coalesced accesses per warp instruction
system.gpu.shader_cores00.lsq.warpCoalescedAccesses::4            0                       # Number of coalesced accesses per warp instruction
system.gpu.shader_cores00.lsq.warpCoalescedAccesses::5            0                       # Number of coalesced accesses per warp instruction
system.gpu.shader_cores00.lsq.warpCoalescedAccesses::6            0                       # Number of coalesced accesses per warp instruction
system.gpu.shader_cores00.lsq.warpCoalescedAccesses::7            0                       # Number of coalesced accesses per warp instruction
system.gpu.shader_cores00.lsq.warpCoalescedAccesses::8            0                       # Number of coalesced accesses per warp instruction
system.gpu.shader_cores00.lsq.warpCoalescedAccesses::9            0                       # Number of coalesced accesses per warp instruction
system.gpu.shader_cores00.lsq.warpCoalescedAccesses::10            0                       # Number of coalesced accesses per warp instruction
system.gpu.shader_cores00.lsq.warpCoalescedAccesses::11            0                       # Number of coalesced accesses per warp instruction
system.gpu.shader_cores00.lsq.warpCoalescedAccesses::12            0                       # Number of coalesced accesses per warp instruction
system.gpu.shader_cores00.lsq.warpCoalescedAccesses::13            0                       # Number of coalesced accesses per warp instruction
system.gpu.shader_cores00.lsq.warpCoalescedAccesses::14            0                       # Number of coalesced accesses per warp instruction
system.gpu.shader_cores00.lsq.warpCoalescedAccesses::15            0                       # Number of coalesced accesses per warp instruction
system.gpu.shader_cores00.lsq.warpCoalescedAccesses::16            0                       # Number of coalesced accesses per warp instruction
system.gpu.shader_cores00.lsq.warpCoalescedAccesses::17            0                       # Number of coalesced accesses per warp instruction
system.gpu.shader_cores00.lsq.warpCoalescedAccesses::18            0                       # Number of coalesced accesses per warp instruction
system.gpu.shader_cores00.lsq.warpCoalescedAccesses::19            0                       # Number of coalesced accesses per warp instruction
system.gpu.shader_cores00.lsq.warpCoalescedAccesses::20            0                       # Number of coalesced accesses per warp instruction
system.gpu.shader_cores00.lsq.warpCoalescedAccesses::21            0                       # Number of coalesced accesses per warp instruction
system.gpu.shader_cores00.lsq.warpCoalescedAccesses::22            0                       # Number of coalesced accesses per warp instruction
system.gpu.shader_cores00.lsq.warpCoalescedAccesses::23            0                       # Number of coalesced accesses per warp instruction
system.gpu.shader_cores00.lsq.warpCoalescedAccesses::24            0                       # Number of coalesced accesses per warp instruction
system.gpu.shader_cores00.lsq.warpCoalescedAccesses::25            0                       # Number of coalesced accesses per warp instruction
system.gpu.shader_cores00.lsq.warpCoalescedAccesses::26            0                       # Number of coalesced accesses per warp instruction
system.gpu.shader_cores00.lsq.warpCoalescedAccesses::27            0                       # Number of coalesced accesses per warp instruction
system.gpu.shader_cores00.lsq.warpCoalescedAccesses::28            0                       # Number of coalesced accesses per warp instruction
system.gpu.shader_cores00.lsq.warpCoalescedAccesses::29            0                       # Number of coalesced accesses per warp instruction
system.gpu.shader_cores00.lsq.warpCoalescedAccesses::30            0                       # Number of coalesced accesses per warp instruction
system.gpu.shader_cores00.lsq.warpCoalescedAccesses::31            0                       # Number of coalesced accesses per warp instruction
system.gpu.shader_cores00.lsq.warpCoalescedAccesses::32            0                       # Number of coalesced accesses per warp instruction
system.gpu.shader_cores00.lsq.warpCoalescedAccesses::total            0                       # Number of coalesced accesses per warp instruction
system.gpu.shader_cores00.lsq.warpLatencyRead::samples            0                       # Latency in cycles for whole warp to finish the read
system.gpu.shader_cores00.lsq.warpLatencyRead::mean          nan                       # Latency in cycles for whole warp to finish the read
system.gpu.shader_cores00.lsq.warpLatencyRead::gmean          nan                       # Latency in cycles for whole warp to finish the read
system.gpu.shader_cores00.lsq.warpLatencyRead::stdev          nan                       # Latency in cycles for whole warp to finish the read
system.gpu.shader_cores00.lsq.warpLatencyRead::0            0                       # Latency in cycles for whole warp to finish the read
system.gpu.shader_cores00.lsq.warpLatencyRead::1            0                       # Latency in cycles for whole warp to finish the read
system.gpu.shader_cores00.lsq.warpLatencyRead::2            0                       # Latency in cycles for whole warp to finish the read
system.gpu.shader_cores00.lsq.warpLatencyRead::3            0                       # Latency in cycles for whole warp to finish the read
system.gpu.shader_cores00.lsq.warpLatencyRead::4            0                       # Latency in cycles for whole warp to finish the read
system.gpu.shader_cores00.lsq.warpLatencyRead::5            0                       # Latency in cycles for whole warp to finish the read
system.gpu.shader_cores00.lsq.warpLatencyRead::6            0                       # Latency in cycles for whole warp to finish the read
system.gpu.shader_cores00.lsq.warpLatencyRead::7            0                       # Latency in cycles for whole warp to finish the read
system.gpu.shader_cores00.lsq.warpLatencyRead::8            0                       # Latency in cycles for whole warp to finish the read
system.gpu.shader_cores00.lsq.warpLatencyRead::9            0                       # Latency in cycles for whole warp to finish the read
system.gpu.shader_cores00.lsq.warpLatencyRead::10            0                       # Latency in cycles for whole warp to finish the read
system.gpu.shader_cores00.lsq.warpLatencyRead::11            0                       # Latency in cycles for whole warp to finish the read
system.gpu.shader_cores00.lsq.warpLatencyRead::12            0                       # Latency in cycles for whole warp to finish the read
system.gpu.shader_cores00.lsq.warpLatencyRead::13            0                       # Latency in cycles for whole warp to finish the read
system.gpu.shader_cores00.lsq.warpLatencyRead::14            0                       # Latency in cycles for whole warp to finish the read
system.gpu.shader_cores00.lsq.warpLatencyRead::15            0                       # Latency in cycles for whole warp to finish the read
system.gpu.shader_cores00.lsq.warpLatencyRead::total            0                       # Latency in cycles for whole warp to finish the read
system.gpu.shader_cores00.lsq.warpLatencyWrite::samples            0                       # Latency in cycles for whole warp to finish the write
system.gpu.shader_cores00.lsq.warpLatencyWrite::mean          nan                       # Latency in cycles for whole warp to finish the write
system.gpu.shader_cores00.lsq.warpLatencyWrite::gmean          nan                       # Latency in cycles for whole warp to finish the write
system.gpu.shader_cores00.lsq.warpLatencyWrite::stdev          nan                       # Latency in cycles for whole warp to finish the write
system.gpu.shader_cores00.lsq.warpLatencyWrite::0            0                       # Latency in cycles for whole warp to finish the write
system.gpu.shader_cores00.lsq.warpLatencyWrite::1            0                       # Latency in cycles for whole warp to finish the write
system.gpu.shader_cores00.lsq.warpLatencyWrite::2            0                       # Latency in cycles for whole warp to finish the write
system.gpu.shader_cores00.lsq.warpLatencyWrite::3            0                       # Latency in cycles for whole warp to finish the write
system.gpu.shader_cores00.lsq.warpLatencyWrite::4            0                       # Latency in cycles for whole warp to finish the write
system.gpu.shader_cores00.lsq.warpLatencyWrite::5            0                       # Latency in cycles for whole warp to finish the write
system.gpu.shader_cores00.lsq.warpLatencyWrite::6            0                       # Latency in cycles for whole warp to finish the write
system.gpu.shader_cores00.lsq.warpLatencyWrite::7            0                       # Latency in cycles for whole warp to finish the write
system.gpu.shader_cores00.lsq.warpLatencyWrite::8            0                       # Latency in cycles for whole warp to finish the write
system.gpu.shader_cores00.lsq.warpLatencyWrite::9            0                       # Latency in cycles for whole warp to finish the write
system.gpu.shader_cores00.lsq.warpLatencyWrite::10            0                       # Latency in cycles for whole warp to finish the write
system.gpu.shader_cores00.lsq.warpLatencyWrite::11            0                       # Latency in cycles for whole warp to finish the write
system.gpu.shader_cores00.lsq.warpLatencyWrite::12            0                       # Latency in cycles for whole warp to finish the write
system.gpu.shader_cores00.lsq.warpLatencyWrite::13            0                       # Latency in cycles for whole warp to finish the write
system.gpu.shader_cores00.lsq.warpLatencyWrite::14            0                       # Latency in cycles for whole warp to finish the write
system.gpu.shader_cores00.lsq.warpLatencyWrite::15            0                       # Latency in cycles for whole warp to finish the write
system.gpu.shader_cores00.lsq.warpLatencyWrite::total            0                       # Latency in cycles for whole warp to finish the write
system.gpu.shader_cores00.lsq.warpLatencyFence::samples            0                       # Latency in cycles for whole warp to finish the fence
system.gpu.shader_cores00.lsq.warpLatencyFence::mean          nan                       # Latency in cycles for whole warp to finish the fence
system.gpu.shader_cores00.lsq.warpLatencyFence::gmean          nan                       # Latency in cycles for whole warp to finish the fence
system.gpu.shader_cores00.lsq.warpLatencyFence::stdev          nan                       # Latency in cycles for whole warp to finish the fence
system.gpu.shader_cores00.lsq.warpLatencyFence::0            0                       # Latency in cycles for whole warp to finish the fence
system.gpu.shader_cores00.lsq.warpLatencyFence::1            0                       # Latency in cycles for whole warp to finish the fence
system.gpu.shader_cores00.lsq.warpLatencyFence::2            0                       # Latency in cycles for whole warp to finish the fence
system.gpu.shader_cores00.lsq.warpLatencyFence::3            0                       # Latency in cycles for whole warp to finish the fence
system.gpu.shader_cores00.lsq.warpLatencyFence::4            0                       # Latency in cycles for whole warp to finish the fence
system.gpu.shader_cores00.lsq.warpLatencyFence::5            0                       # Latency in cycles for whole warp to finish the fence
system.gpu.shader_cores00.lsq.warpLatencyFence::6            0                       # Latency in cycles for whole warp to finish the fence
system.gpu.shader_cores00.lsq.warpLatencyFence::7            0                       # Latency in cycles for whole warp to finish the fence
system.gpu.shader_cores00.lsq.warpLatencyFence::8            0                       # Latency in cycles for whole warp to finish the fence
system.gpu.shader_cores00.lsq.warpLatencyFence::9            0                       # Latency in cycles for whole warp to finish the fence
system.gpu.shader_cores00.lsq.warpLatencyFence::10            0                       # Latency in cycles for whole warp to finish the fence
system.gpu.shader_cores00.lsq.warpLatencyFence::11            0                       # Latency in cycles for whole warp to finish the fence
system.gpu.shader_cores00.lsq.warpLatencyFence::12            0                       # Latency in cycles for whole warp to finish the fence
system.gpu.shader_cores00.lsq.warpLatencyFence::13            0                       # Latency in cycles for whole warp to finish the fence
system.gpu.shader_cores00.lsq.warpLatencyFence::14            0                       # Latency in cycles for whole warp to finish the fence
system.gpu.shader_cores00.lsq.warpLatencyFence::15            0                       # Latency in cycles for whole warp to finish the fence
system.gpu.shader_cores00.lsq.warpLatencyFence::total            0                       # Latency in cycles for whole warp to finish the fence
system.gpu.shader_cores00.lsq.warpLatencyAtomic::samples            0                       # Latency in cycles for whole warp to finish the atomic
system.gpu.shader_cores00.lsq.warpLatencyAtomic::mean          nan                       # Latency in cycles for whole warp to finish the atomic
system.gpu.shader_cores00.lsq.warpLatencyAtomic::gmean          nan                       # Latency in cycles for whole warp to finish the atomic
system.gpu.shader_cores00.lsq.warpLatencyAtomic::stdev          nan                       # Latency in cycles for whole warp to finish the atomic
system.gpu.shader_cores00.lsq.warpLatencyAtomic::0            0                       # Latency in cycles for whole warp to finish the atomic
system.gpu.shader_cores00.lsq.warpLatencyAtomic::1            0                       # Latency in cycles for whole warp to finish the atomic
system.gpu.shader_cores00.lsq.warpLatencyAtomic::2            0                       # Latency in cycles for whole warp to finish the atomic
system.gpu.shader_cores00.lsq.warpLatencyAtomic::3            0                       # Latency in cycles for whole warp to finish the atomic
system.gpu.shader_cores00.lsq.warpLatencyAtomic::4            0                       # Latency in cycles for whole warp to finish the atomic
system.gpu.shader_cores00.lsq.warpLatencyAtomic::5            0                       # Latency in cycles for whole warp to finish the atomic
system.gpu.shader_cores00.lsq.warpLatencyAtomic::6            0                       # Latency in cycles for whole warp to finish the atomic
system.gpu.shader_cores00.lsq.warpLatencyAtomic::7            0                       # Latency in cycles for whole warp to finish the atomic
system.gpu.shader_cores00.lsq.warpLatencyAtomic::8            0                       # Latency in cycles for whole warp to finish the atomic
system.gpu.shader_cores00.lsq.warpLatencyAtomic::9            0                       # Latency in cycles for whole warp to finish the atomic
system.gpu.shader_cores00.lsq.warpLatencyAtomic::10            0                       # Latency in cycles for whole warp to finish the atomic
system.gpu.shader_cores00.lsq.warpLatencyAtomic::11            0                       # Latency in cycles for whole warp to finish the atomic
system.gpu.shader_cores00.lsq.warpLatencyAtomic::12            0                       # Latency in cycles for whole warp to finish the atomic
system.gpu.shader_cores00.lsq.warpLatencyAtomic::13            0                       # Latency in cycles for whole warp to finish the atomic
system.gpu.shader_cores00.lsq.warpLatencyAtomic::14            0                       # Latency in cycles for whole warp to finish the atomic
system.gpu.shader_cores00.lsq.warpLatencyAtomic::15            0                       # Latency in cycles for whole warp to finish the atomic
system.gpu.shader_cores00.lsq.warpLatencyAtomic::total            0                       # Latency in cycles for whole warp to finish the atomic
system.gpu.shader_cores00.lsq.tlbMissLatency::samples            0                       # Latency in cycles for TLB miss
system.gpu.shader_cores00.lsq.tlbMissLatency::mean          nan                       # Latency in cycles for TLB miss
system.gpu.shader_cores00.lsq.tlbMissLatency::gmean          nan                       # Latency in cycles for TLB miss
system.gpu.shader_cores00.lsq.tlbMissLatency::stdev          nan                       # Latency in cycles for TLB miss
system.gpu.shader_cores00.lsq.tlbMissLatency::0            0                       # Latency in cycles for TLB miss
system.gpu.shader_cores00.lsq.tlbMissLatency::1            0                       # Latency in cycles for TLB miss
system.gpu.shader_cores00.lsq.tlbMissLatency::2            0                       # Latency in cycles for TLB miss
system.gpu.shader_cores00.lsq.tlbMissLatency::3            0                       # Latency in cycles for TLB miss
system.gpu.shader_cores00.lsq.tlbMissLatency::4            0                       # Latency in cycles for TLB miss
system.gpu.shader_cores00.lsq.tlbMissLatency::5            0                       # Latency in cycles for TLB miss
system.gpu.shader_cores00.lsq.tlbMissLatency::6            0                       # Latency in cycles for TLB miss
system.gpu.shader_cores00.lsq.tlbMissLatency::7            0                       # Latency in cycles for TLB miss
system.gpu.shader_cores00.lsq.tlbMissLatency::8            0                       # Latency in cycles for TLB miss
system.gpu.shader_cores00.lsq.tlbMissLatency::9            0                       # Latency in cycles for TLB miss
system.gpu.shader_cores00.lsq.tlbMissLatency::10            0                       # Latency in cycles for TLB miss
system.gpu.shader_cores00.lsq.tlbMissLatency::11            0                       # Latency in cycles for TLB miss
system.gpu.shader_cores00.lsq.tlbMissLatency::12            0                       # Latency in cycles for TLB miss
system.gpu.shader_cores00.lsq.tlbMissLatency::13            0                       # Latency in cycles for TLB miss
system.gpu.shader_cores00.lsq.tlbMissLatency::14            0                       # Latency in cycles for TLB miss
system.gpu.shader_cores00.lsq.tlbMissLatency::15            0                       # Latency in cycles for TLB miss
system.gpu.shader_cores00.lsq.tlbMissLatency::total            0                       # Latency in cycles for TLB miss
system.gpu.shader_cores01.itb.hits                  0                       # Number of hits in this TLB
system.gpu.shader_cores01.itb.misses                0                       # Number of misses in this TLB
system.gpu.shader_cores01.itb.hitRate             nan                       # Hit rate for this TLB
system.gpu.shader_cores01.local_loads               0                       # Number of loads from local space
system.gpu.shader_cores01.local_stores              0                       # Number of stores to local space
system.gpu.shader_cores01.shared_loads              0                       # Number of loads from shared space
system.gpu.shader_cores01.shared_stores             0                       # Number of stores to shared space
system.gpu.shader_cores01.param_kernel_loads           96                       # Number of loads from kernel parameter space
system.gpu.shader_cores01.param_local_loads            0                       # Number of loads from local parameter space
system.gpu.shader_cores01.param_local_stores            0                       # Number of stores to local parameter space
system.gpu.shader_cores01.const_loads               0                       # Number of loads from constant space
system.gpu.shader_cores01.tex_loads                 0                       # Number of loads from texture space
system.gpu.shader_cores01.global_loads              0                       # Number of loads from global space
system.gpu.shader_cores01.global_stores            32                       # Number of stores to global space
system.gpu.shader_cores01.surf_loads                0                       # Number of loads from surface space
system.gpu.shader_cores01.generic_loads             0                       # Number of loads from generic spaces (global, shared, local)
system.gpu.shader_cores01.generic_stores            0                       # Number of stores to generic spaces (global, shared, local)
system.gpu.shader_cores01.inst_cache_requests            2                       # Number of instruction cache requests sent
system.gpu.shader_cores01.inst_cache_retries            0                       # Number of instruction cache retries
system.gpu.shader_cores01.inst_counts::0            0                       # Inst counts: 1: ALU, 2: MAD, 3: CTRL, 4: SFU, 5: MEM, 6: TEX, 7: NOP
system.gpu.shader_cores01.inst_counts::1          672                       # Inst counts: 1: ALU, 2: MAD, 3: CTRL, 4: SFU, 5: MEM, 6: TEX, 7: NOP
system.gpu.shader_cores01.inst_counts::2            0                       # Inst counts: 1: ALU, 2: MAD, 3: CTRL, 4: SFU, 5: MEM, 6: TEX, 7: NOP
system.gpu.shader_cores01.inst_counts::3           96                       # Inst counts: 1: ALU, 2: MAD, 3: CTRL, 4: SFU, 5: MEM, 6: TEX, 7: NOP
system.gpu.shader_cores01.inst_counts::4            0                       # Inst counts: 1: ALU, 2: MAD, 3: CTRL, 4: SFU, 5: MEM, 6: TEX, 7: NOP
system.gpu.shader_cores01.inst_counts::5          128                       # Inst counts: 1: ALU, 2: MAD, 3: CTRL, 4: SFU, 5: MEM, 6: TEX, 7: NOP
system.gpu.shader_cores01.inst_counts::6            0                       # Inst counts: 1: ALU, 2: MAD, 3: CTRL, 4: SFU, 5: MEM, 6: TEX, 7: NOP
system.gpu.shader_cores01.inst_counts::7            0                       # Inst counts: 1: ALU, 2: MAD, 3: CTRL, 4: SFU, 5: MEM, 6: TEX, 7: NOP
system.gpu.shader_cores01.activeCycles           2023                       # Number of cycles this shader was executing a CTA
system.gpu.shader_cores01.notStalledCycles           28                       # Number of cycles this shader was actually executing at least one instance
system.gpu.shader_cores01.instInstances           896                       # Total instructions executed by all PEs in the core
system.gpu.shader_cores01.instPerCycle       0.442907                       # Instruction instances per cycle
system.gpu.shader_cores01.kernels_completed            1                       # Number of kernels completed
system.gpu.shader_cores01.lsq.data_tlb.hits            0                       # Number of hits in this TLB
system.gpu.shader_cores01.lsq.data_tlb.misses            0                       # Number of misses in this TLB
system.gpu.shader_cores01.lsq.data_tlb.hitRate          nan                       # Hit rate for this TLB
system.gpu.shader_cores01.lsq.warpInstBufActive::samples      2166364                       # Histogram of number of active warp inst buffers at a given time
system.gpu.shader_cores01.lsq.warpInstBufActive::mean     0.701187                       # Histogram of number of active warp inst buffers at a given time
system.gpu.shader_cores01.lsq.warpInstBufActive::gmean          nan                       # Histogram of number of active warp inst buffers at a given time
system.gpu.shader_cores01.lsq.warpInstBufActive::stdev     0.457738                       # Histogram of number of active warp inst buffers at a given time
system.gpu.shader_cores01.lsq.warpInstBufActive::0       647337     29.88%     29.88% # Histogram of number of active warp inst buffers at a given time
system.gpu.shader_cores01.lsq.warpInstBufActive::1      1519027     70.12%    100.00% # Histogram of number of active warp inst buffers at a given time
system.gpu.shader_cores01.lsq.warpInstBufActive::2            0      0.00%    100.00% # Histogram of number of active warp inst buffers at a given time
system.gpu.shader_cores01.lsq.warpInstBufActive::3            0      0.00%    100.00% # Histogram of number of active warp inst buffers at a given time
system.gpu.shader_cores01.lsq.warpInstBufActive::4            0      0.00%    100.00% # Histogram of number of active warp inst buffers at a given time
system.gpu.shader_cores01.lsq.warpInstBufActive::5            0      0.00%    100.00% # Histogram of number of active warp inst buffers at a given time
system.gpu.shader_cores01.lsq.warpInstBufActive::6            0      0.00%    100.00% # Histogram of number of active warp inst buffers at a given time
system.gpu.shader_cores01.lsq.warpInstBufActive::7            0      0.00%    100.00% # Histogram of number of active warp inst buffers at a given time
system.gpu.shader_cores01.lsq.warpInstBufActive::8            0      0.00%    100.00% # Histogram of number of active warp inst buffers at a given time
system.gpu.shader_cores01.lsq.warpInstBufActive::9            0      0.00%    100.00% # Histogram of number of active warp inst buffers at a given time
system.gpu.shader_cores01.lsq.warpInstBufActive::10            0      0.00%    100.00% # Histogram of number of active warp inst buffers at a given time
system.gpu.shader_cores01.lsq.warpInstBufActive::11            0      0.00%    100.00% # Histogram of number of active warp inst buffers at a given time
system.gpu.shader_cores01.lsq.warpInstBufActive::12            0      0.00%    100.00% # Histogram of number of active warp inst buffers at a given time
system.gpu.shader_cores01.lsq.warpInstBufActive::13            0      0.00%    100.00% # Histogram of number of active warp inst buffers at a given time
system.gpu.shader_cores01.lsq.warpInstBufActive::14            0      0.00%    100.00% # Histogram of number of active warp inst buffers at a given time
system.gpu.shader_cores01.lsq.warpInstBufActive::15            0      0.00%    100.00% # Histogram of number of active warp inst buffers at a given time
system.gpu.shader_cores01.lsq.warpInstBufActive::16            0      0.00%    100.00% # Histogram of number of active warp inst buffers at a given time
system.gpu.shader_cores01.lsq.warpInstBufActive::17            0      0.00%    100.00% # Histogram of number of active warp inst buffers at a given time
[...]
system.ruby.Locked_RMW_Write.GPUL2Cache.miss_type_mach_latency_hist::total            6                      
system.ruby.GPUCopyDMA_Controller.ReadRequest            1      0.00%      0.00%
system.ruby.GPUCopyDMA_Controller.WriteRequest            1      0.00%      0.00%
system.ruby.GPUCopyDMA_Controller.Data              1      0.00%      0.00%
system.ruby.GPUCopyDMA_Controller.Ack               1      0.00%      0.00%
system.ruby.GPUCopyDMA_Controller.READY.ReadRequest            1      0.00%      0.00%
system.ruby.GPUCopyDMA_Controller.READY.WriteRequest            1      0.00%      0.00%
system.ruby.GPUCopyDMA_Controller.BUSY_RD.Data            1      0.00%      0.00%
system.ruby.GPUCopyDMA_Controller.BUSY_WR.Ack            1      0.00%      0.00%
system.ruby.Directory_Controller.GETX             154      0.00%      0.00%
system.ruby.Directory_Controller.GETS             801      0.00%      0.00%
system.ruby.Directory_Controller.UnblockS            1      0.00%      0.00%
system.ruby.Directory_Controller.UnblockM          953      0.00%      0.00%
system.ruby.Directory_Controller.DMA_READ            1      0.00%      0.00%
system.ruby.Directory_Controller.DMA_WRITE            1      0.00%      0.00%
system.ruby.Directory_Controller.Memory_Data          953      0.00%      0.00%
system.ruby.Directory_Controller.Memory_Ack            2      0.00%      0.00%
system.ruby.Directory_Controller.Ack                4      0.00%      0.00%
system.ruby.Directory_Controller.Exclusive_Data            2      0.00%      0.00%
system.ruby.Directory_Controller.All_acks_and_data_no_sharers            2      0.00%      0.00%
system.ruby.Directory_Controller.NO.GETX            1      0.00%      0.00%
system.ruby.Directory_Controller.NO.GETS            1      0.00%      0.00%
system.ruby.Directory_Controller.NO.DMA_READ            1      0.00%      0.00%
system.ruby.Directory_Controller.NO.DMA_WRITE            1      0.00%      0.00%
system.ruby.Directory_Controller.E.GETX           153      0.00%      0.00%
system.ruby.Directory_Controller.E.GETS           800      0.00%      0.00%
system.ruby.Directory_Controller.NO_B.UnblockS            1      0.00%      0.00%
system.ruby.Directory_Controller.NO_B.UnblockM          953      0.00%      0.00%
system.ruby.Directory_Controller.NO_B_W.Memory_Data          953      0.00%      0.00%
system.ruby.Directory_Controller.NO_DW_B_W.Ack            2      0.00%      0.00%
system.ruby.Directory_Controller.NO_DW_B_W.Exclusive_Data            1      0.00%      0.00%
system.ruby.Directory_Controller.NO_DW_B_W.All_acks_and_data_no_sharers            1      0.00%      0.00%
system.ruby.Directory_Controller.NO_DR_B_D.Ack            2      0.00%      0.00%
system.ruby.Directory_Controller.NO_DR_B_D.Exclusive_Data            1      0.00%      0.00%
system.ruby.Directory_Controller.NO_DR_B_D.All_acks_and_data_no_sharers            1      0.00%      0.00%
system.ruby.Directory_Controller.NO_DW_W.Memory_Ack            1      0.00%      0.00%
system.ruby.Directory_Controller.WB_E_W.Memory_Ack            1      0.00%      0.00%
system.ruby.L1Cache_Controller.Load      |       24288    100.00%    100.00% |           0      0.00%    100.00%
system.ruby.L1Cache_Controller.Load::total        24288                      
system.ruby.L1Cache_Controller.Ifetch    |      129158    100.00%    100.00% |           0      0.00%    100.00%
system.ruby.L1Cache_Controller.Ifetch::total       129158                      
system.ruby.L1Cache_Controller.Store     |       17708    100.00%    100.00% |           0      0.00%    100.00%
system.ruby.L1Cache_Controller.Store::total        17708                      
system.ruby.L1Cache_Controller.L1_to_L2  |         547    100.00%    100.00% |           0      0.00%    100.00%
system.ruby.L1Cache_Controller.L1_to_L2::total          547                      
system.ruby.L1Cache_Controller.Trigger_L2_to_L1I |         127    100.00%    100.00% |           0      0.00%    100.00%
system.ruby.L1Cache_Controller.Trigger_L2_to_L1I::total          127                      
system.ruby.L1Cache_Controller.Complete_L2_to_L1 |         127    100.00%    100.00% |           0      0.00%    100.00%
system.ruby.L1Cache_Controller.Complete_L2_to_L1::total          127                      
system.ruby.L1Cache_Controller.Other_GETX |           2      1.27%      1.27% |         155     98.73%    100.00%
system.ruby.L1Cache_Controller.Other_GETX::total          157                      
system.ruby.L1Cache_Controller.Other_GETS |           3      0.37%      0.37% |         802     99.63%    100.00%
system.ruby.L1Cache_Controller.Other_GETS::total          805                      
system.ruby.L1Cache_Controller.Ack       |        1904    100.00%    100.00% |           0      0.00%    100.00%
system.ruby.L1Cache_Controller.Ack::total         1904                      
system.ruby.L1Cache_Controller.Exclusive_Data |         952    100.00%    100.00% |           0      0.00%    100.00%
system.ruby.L1Cache_Controller.Exclusive_Data::total          952                      
system.ruby.L1Cache_Controller.All_acks_no_sharers |         952    100.00%    100.00% |           0      0.00%    100.00%
system.ruby.L1Cache_Controller.All_acks_no_sharers::total          952                      
system.ruby.L1Cache_Controller.I.Load    |         136    100.00%    100.00% |           0      0.00%    100.00%
system.ruby.L1Cache_Controller.I.Load::total          136                      
system.ruby.L1Cache_Controller.I.Ifetch  |         663    100.00%    100.00% |           0      0.00%    100.00%
system.ruby.L1Cache_Controller.I.Ifetch::total          663                      
system.ruby.L1Cache_Controller.I.Store   |         153    100.00%    100.00% |           0      0.00%    100.00%
system.ruby.L1Cache_Controller.I.Store::total          153                      
system.ruby.L1Cache_Controller.I.Other_GETX |           0      0.00%      0.00% |         155    100.00%    100.00%
system.ruby.L1Cache_Controller.I.Other_GETX::total          155                      
system.ruby.L1Cache_Controller.I.Other_GETS |           2      0.25%      0.25% |         802     99.75%    100.00%
system.ruby.L1Cache_Controller.I.Other_GETS::total          804                      
system.ruby.L1Cache_Controller.M.Load    |        3392    100.00%    100.00% |           0      0.00%    100.00%
system.ruby.L1Cache_Controller.M.Load::total         3392                      
system.ruby.L1Cache_Controller.M.Ifetch  |      128368    100.00%    100.00% |           0      0.00%    100.00%
system.ruby.L1Cache_Controller.M.Ifetch::total       128368                      
system.ruby.L1Cache_Controller.M.Store   |          36    100.00%    100.00% |           0      0.00%    100.00%
system.ruby.L1Cache_Controller.M.Store::total           36                      
system.ruby.L1Cache_Controller.M.L1_to_L2 |         542    100.00%    100.00% |           0      0.00%    100.00%
system.ruby.L1Cache_Controller.M.L1_to_L2::total          542                      
system.ruby.L1Cache_Controller.M.Trigger_L2_to_L1I |         127    100.00%    100.00% |           0      0.00%    100.00%
system.ruby.L1Cache_Controller.M.Trigger_L2_to_L1I::total          127                      
system.ruby.L1Cache_Controller.M.Other_GETS |           1    100.00%    100.00% |           0      0.00%    100.00%
system.ruby.L1Cache_Controller.M.Other_GETS::total            1                      
system.ruby.L1Cache_Controller.MM.Load   |       20760    100.00%    100.00% |           0      0.00%    100.00%
system.ruby.L1Cache_Controller.MM.Load::total        20760                      
system.ruby.L1Cache_Controller.MM.Store  |       17519    100.00%    100.00% |           0      0.00%    100.00%
system.ruby.L1Cache_Controller.MM.Store::total        17519                      
system.ruby.L1Cache_Controller.MM.L1_to_L2 |           5    100.00%    100.00% |           0      0.00%    100.00%
system.ruby.L1Cache_Controller.MM.L1_to_L2::total            5                      
system.ruby.L1Cache_Controller.MM.Other_GETX |           2    100.00%    100.00% |           0      0.00%    100.00%
system.ruby.L1Cache_Controller.MM.Other_GETX::total            2                      
system.ruby.L1Cache_Controller.MR.Ifetch |         127    100.00%    100.00% |           0      0.00%    100.00%
system.ruby.L1Cache_Controller.MR.Ifetch::total          127                      
system.ruby.L1Cache_Controller.IM.Ack    |         306    100.00%    100.00% |           0      0.00%    100.00%
system.ruby.L1Cache_Controller.IM.Ack::total          306                      
system.ruby.L1Cache_Controller.IM.Exclusive_Data |         153    100.00%    100.00% |           0      0.00%    100.00%
system.ruby.L1Cache_Controller.IM.Exclusive_Data::total          153                      
system.ruby.L1Cache_Controller.M_W.All_acks_no_sharers |         799    100.00%    100.00% |           0      0.00%    100.00%
system.ruby.L1Cache_Controller.M_W.All_acks_no_sharers::total          799                      
system.ruby.L1Cache_Controller.MM_W.All_acks_no_sharers |         153    100.00%    100.00% |           0      0.00%    100.00%
system.ruby.L1Cache_Controller.MM_W.All_acks_no_sharers::total          153                      
system.ruby.L1Cache_Controller.IS.Ack    |        1598    100.00%    100.00% |           0      0.00%    100.00%
system.ruby.L1Cache_Controller.IS.Ack::total         1598                      
system.ruby.L1Cache_Controller.IS.Exclusive_Data |         799    100.00%    100.00% |           0      0.00%    100.00%
system.ruby.L1Cache_Controller.IS.Exclusive_Data::total          799                      
system.ruby.L1Cache_Controller.MT.Complete_L2_to_L1 |         127    100.00%    100.00% |           0      0.00%    100.00%
system.ruby.L1Cache_Controller.MT.Complete_L2_to_L1::total          127                      
system.ruby.GPUL1Cache_Controller.Ifetch |           0      0.00%      0.00% |           2    100.00%    100.00% |           0      0.00%    100.00% |           0      0.00%    100.00% |           0      0.00%    100.00% |           0      0.00%    100.00% |           0      0.00%    100.00% |           0      0.00%    100.00% |           0      0.00%    100.00% |           0      0.00%    100.00% |           0      0.00%    100.00% |           0      0.00%    100.00% |           0      0.00%    100.00% |           0      0.00%    100.00% |           0      0.00%    100.00% |           0      0.00%    100.00%
system.ruby.GPUL1Cache_Controller.Ifetch::total            2                      
system.ruby.GPUL1Cache_Controller.Store  |           0      0.00%      0.00% |           1    100.00%    100.00% |           0      0.00%    100.00% |           0      0.00%    100.00% |           0      0.00%    100.00% |           0      0.00%    100.00% |           0      0.00%    100.00% |           0      0.00%    100.00% |           0      0.00%    100.00% |           0      0.00%    100.00% |           0      0.00%    100.00% |           0      0.00%    100.00% |           0      0.00%    100.00% |           0      0.00%    100.00% |           0      0.00%    100.00% |           0      0.00%    100.00%
system.ruby.GPUL1Cache_Controller.Store::total            1                      
system.ruby.GPUL1Cache_Controller.Atomic |           0      0.00%      0.00% |           6    100.00%    100.00% |           0      0.00%    100.00% |           0      0.00%    100.00% |           0      0.00%    100.00% |           0      0.00%    100.00% |           0      0.00%    100.00% |           0      0.00%    100.00% |           0      0.00%    100.00% |           0      0.00%    100.00% |           0      0.00%    100.00% |           0      0.00%    100.00% |           0      0.00%    100.00% |           0      0.00%    100.00% |           0      0.00%    100.00% |           0      0.00%    100.00%
system.ruby.GPUL1Cache_Controller.Atomic::total            6                      
system.ruby.GPUL1Cache_Controller.Data   |           0      0.00%      0.00% |           2    100.00%    100.00% |           0      0.00%    100.00% |           0      0.00%    100.00% |           0      0.00%    100.00% |           0      0.00%    100.00% |           0      0.00%    100.00% |           0      0.00%    100.00% |           0      0.00%    100.00% |           0      0.00%    100.00% |           0      0.00%    100.00% |           0      0.00%    100.00% |           0      0.00%    100.00% |           0      0.00%    100.00% |           0      0.00%    100.00% |           0      0.00%    100.00%
system.ruby.GPUL1Cache_Controller.Data::total            2                      
system.ruby.GPUL1Cache_Controller.Write_Ack |           0      0.00%      0.00% |           7    100.00%    100.00% |           0      0.00%    100.00% |           0      0.00%    100.00% |           0      0.00%    100.00% |           0      0.00%    100.00% |           0      0.00%    100.00% |           0      0.00%    100.00% |           0      0.00%    100.00% |           0      0.00%    100.00% |           0      0.00%    100.00% |           0      0.00%    100.00% |           0      0.00%    100.00% |           0      0.00%    100.00% |           0      0.00%    100.00% |           0      0.00%    100.00%
system.ruby.GPUL1Cache_Controller.Write_Ack::total            7                      
system.ruby.GPUL1Cache_Controller.I.Ifetch |           0      0.00%      0.00% |           2    100.00%    100.00% |           0      0.00%    100.00% |           0      0.00%    100.00% |           0      0.00%    100.00% |           0      0.00%    100.00% |           0      0.00%    100.00% |           0      0.00%    100.00% |           0      0.00%    100.00% |           0      0.00%    100.00% |           0      0.00%    100.00% |           0      0.00%    100.00% |           0      0.00%    100.00% |           0      0.00%    100.00% |           0      0.00%    100.00% |           0      0.00%    100.00%
system.ruby.GPUL1Cache_Controller.I.Ifetch::total            2                      
system.ruby.GPUL1Cache_Controller.I.Store |           0      0.00%      0.00% |           1    100.00%    100.00% |           0      0.00%    100.00% |           0      0.00%    100.00% |           0      0.00%    100.00% |           0      0.00%    100.00% |           0      0.00%    100.00% |           0      0.00%    100.00% |           0      0.00%    100.00% |           0      0.00%    100.00% |           0      0.00%    100.00% |           0      0.00%    100.00% |           0      0.00%    100.00% |           0      0.00%    100.00% |           0      0.00%    100.00% |           0      0.00%    100.00%
system.ruby.GPUL1Cache_Controller.I.Store::total            1                      
system.ruby.GPUL1Cache_Controller.I.Atomic |           0      0.00%      0.00% |           6    100.00%    100.00% |           0      0.00%    100.00% |           0      0.00%    100.00% |           0      0.00%    100.00% |           0      0.00%    100.00% |           0      0.00%    100.00% |           0      0.00%    100.00% |           0      0.00%    100.00% |           0      0.00%    100.00% |           0      0.00%    100.00% |           0      0.00%    100.00% |           0      0.00%    100.00% |           0      0.00%    100.00% |           0      0.00%    100.00% |           0      0.00%    100.00%
system.ruby.GPUL1Cache_Controller.I.Atomic::total            6                      
system.ruby.GPUL1Cache_Controller.IA.Write_Ack |           0      0.00%      0.00% |           1    100.00%    100.00% |           0      0.00%    100.00% |           0      0.00%    100.00% |           0      0.00%    100.00% |           0      0.00%    100.00% |           0      0.00%    100.00% |           0      0.00%    100.00% |           0      0.00%    100.00% |           0      0.00%    100.00% |           0      0.00%    100.00% |           0      0.00%    100.00% |           0      0.00%    100.00% |           0      0.00%    100.00% |           0      0.00%    100.00% |           0      0.00%    100.00%
system.ruby.GPUL1Cache_Controller.IA.Write_Ack::total            1                      
system.ruby.GPUL1Cache_Controller.IV.Data |           0      0.00%      0.00% |           2    100.00%    100.00% |           0      0.00%    100.00% |           0      0.00%    100.00% |           0      0.00%    100.00% |           0      0.00%    100.00% |           0      0.00%    100.00% |           0      0.00%    100.00% |           0      0.00%    100.00% |           0      0.00%    100.00% |           0      0.00%    100.00% |           0      0.00%    100.00% |           0      0.00%    100.00% |           0      0.00%    100.00% |           0      0.00%    100.00% |           0      0.00%    100.00%
system.ruby.GPUL1Cache_Controller.IV.Data::total            2                      
system.ruby.GPUL1Cache_Controller.I_a.Write_Ack |           0      0.00%      0.00% |           6    100.00%    100.00% |           0      0.00%    100.00% |           0      0.00%    100.00% |           0      0.00%    100.00% |           0      0.00%    100.00% |           0      0.00%    100.00% |           0      0.00%    100.00% |           0      0.00%    100.00% |           0      0.00%    100.00% |           0      0.00%    100.00% |           0      0.00%    100.00% |           0      0.00%    100.00% |           0      0.00%    100.00% |           0      0.00%    100.00% |           0      0.00%    100.00%
system.ruby.GPUL1Cache_Controller.I_a.Write_Ack::total            6                      
system.ruby.GPUL2Cache_Controller.Get               2      0.00%      0.00%
system.ruby.GPUL2Cache_Controller.Store             7      0.00%      0.00%
system.ruby.GPUL2Cache_Controller.Other_GETX          154      0.00%      0.00%
system.ruby.GPUL2Cache_Controller.Other_GETS          800      0.00%      0.00%
system.ruby.GPUL2Cache_Controller.Ack               4      0.00%      0.00%
system.ruby.GPUL2Cache_Controller.Shared_Data            1      0.00%      0.00%
system.ruby.GPUL2Cache_Controller.Exclusive_Data            2      0.00%      0.00%
system.ruby.GPUL2Cache_Controller.All_acks            1      0.00%      0.00%
system.ruby.GPUL2Cache_Controller.All_acks_no_sharers            2      0.00%      0.00%
system.ruby.GPUL2Cache_Controller.I.Get             2      0.00%      0.00%
system.ruby.GPUL2Cache_Controller.I.Store            1      0.00%      0.00%
system.ruby.GPUL2Cache_Controller.I.Other_GETX          154      0.00%      0.00%
system.ruby.GPUL2Cache_Controller.I.Other_GETS          799      0.00%      0.00%
system.ruby.GPUL2Cache_Controller.MM.Store            6      0.00%      0.00%
system.ruby.GPUL2Cache_Controller.MM.Other_GETS            1      0.00%      0.00%
system.ruby.GPUL2Cache_Controller.IM.Ack            1      0.00%      0.00%
system.ruby.GPUL2Cache_Controller.IM.Exclusive_Data            1      0.00%      0.00%
system.ruby.GPUL2Cache_Controller.IS.Ack            3      0.00%      0.00%
system.ruby.GPUL2Cache_Controller.IS.Shared_Data            1      0.00%      0.00%
system.ruby.GPUL2Cache_Controller.IS.Exclusive_Data            1      0.00%      0.00%
system.ruby.GPUL2Cache_Controller.SS.All_acks            1      0.00%      0.00%
system.ruby.GPUL2Cache_Controller.M_W.All_acks_no_sharers            1      0.00%      0.00%
system.ruby.GPUL2Cache_Controller.MM_W.All_acks_no_sharers            1      0.00%      0.00%

---------- End Simulation Statistics   ----------
